Lattice="13.044023633013829 0.0 0.0 -6.5220118165069145 11.29645583370925 0.0 0.0 0.0 32.77822688778603" Properties=species:S:1:pos:R:3 pbc="T T T"
 OpenBabel11102010583D

 80117  0  0  1  0  0  0  0  0999 V2000
   -0.0000    1.8827   12.5408 Br  0  0  0  0  0  0  0  0  0  0  0  0
    1.6305    0.9414    7.1969 Br  0  0  0  0  0  0  0  0  0  0  0  0
    0.0000    0.0000    9.8689 C   0  0  0  0  0  0  0  0  0  0  0  0
   -0.0000    1.8827    9.0014 Cr  0  0  1  0  0  0  0  0  0  0  0  0
    1.6305    0.9414   10.7364 Cr  0  0  0  0  0  0  0  0  0  0  0  0
   -1.6305    4.7069   12.5408 Br  0  0  0  0  0  0  0  0  0  0  0  0
    0.0000    3.7655    7.1969 Br  0  0  0  0  0  0  0  0  0  0  0  0
   -1.6305    2.8241    9.8689 C   0  0  2  0  0  0  0  0  0  0  0  0
   -1.6305    4.7069    9.0014 Cr  0  0  2  0  0  0  0  0  0  0  0  0
    0.0000    3.7655   10.7364 Cr  0  0  0  0  0  0  0  0  0  0  0  0
   -3.2610    7.5310   12.5408 Br  0  0  0  0  0  0  0  0  0  0  0  0
   -1.6305    6.5896    7.1969 Br  0  0  0  0  0  0  0  0  0  0  0  0
   -3.2610    5.6482    9.8689 C   0  0  2  0  0  0  0  0  0  0  0  0
   -3.2610    7.5310    9.0014 Cr  0  0  0  0  0  0  0  0  0  0  0  0
   -1.6305    6.5896   10.7364 Cr  0  0  0  0  0  0  0  0  0  0  0  0
   -4.8915   10.3551   12.5408 Br  0  0  0  0  0  0  0  0  0  0  0  0
   -3.2610    9.4137    7.1969 Br  0  0  0  0  0  0  0  0  0  0  0  0
   -4.8915    8.4723    9.8689 C   0  0  2  0  0  0  0  0  0  0  0  0
   -4.8915   10.3551    9.0014 Cr  0  0  0  0  0  0  0  0  0  0  0  0
   -3.2610    9.4137   10.7364 Cr  0  0  0  0  0  0  0  0  0  0  0  0
    3.2610    1.8827   12.5408 Br  0  0  0  0  0  0  0  0  0  0  0  0
    4.8915    0.9414    7.1969 Br  0  0  0  0  0  0  0  0  0  0  0  0
    3.2610    0.0000    9.8689 C   0  0  1  0  0  0  0  0  0  0  0  0
    3.2610    1.8827    9.0014 Cr  0  0  0  0  0  0  0  0  0  0  0  0
    4.8915    0.9414   10.7364 Cr  0  0  0  0  0  0  0  0  0  0  0  0
    1.6305    4.7069   12.5408 Br  0  0  0  0  0  0  0  0  0  0  0  0
    3.2610    3.7655    7.1969 Br  0  0  0  0  0  0  0  0  0  0  0  0
    1.6305    2.8241    9.8689 C   0  0  2  0  0  0  0  0  0  0  0  0
    1.6305    4.7069    9.0014 Cr  0  0  0  0  0  0  0  0  0  0  0  0
    3.2610    3.7655   10.7364 Cr  0  0  0  0  0  0  0  0  0  0  0  0
   -0.0000    7.5310   12.5408 Br  0  0  0  0  0  0  0  0  0  0  0  0
    1.6305    6.5896    7.1969 Br  0  0  0  0  0  0  0  0  0  0  0  0
    0.0000    5.6482    9.8689 C   0  0  2  0  0  0  0  0  0  0  0  0
   -0.0000    7.5310    9.0014 Cr  0  0  0  0  0  0  0  0  0  0  0  0
    1.6305    6.5896   10.7364 Cr  0  0  0  0  0  0  0  0  0  0  0  0
   -1.6305   10.3551   12.5408 Br  0  0  0  0  0  0  0  0  0  0  0  0
    0.0000    9.4137    7.1969 Br  0  0  0  0  0  0  0  0  0  0  0  0
   -1.6305    8.4723    9.8689 C   0  0  2  0  0  0  0  0  0  0  0  0
   -1.6305   10.3551    9.0014 Cr  0  0  0  0  0  0  0  0  0  0  0  0
    0.0000    9.4137   10.7364 Cr  0  0  0  0  0  0  0  0  0  0  0  0
    6.5220    1.8827   12.5408 Br  0  0  0  0  0  0  0  0  0  0  0  0
    8.1525    0.9414    7.1969 Br  0  0  0  0  0  0  0  0  0  0  0  0
    6.5220    0.0000    9.8689 C   0  0  1  0  0  0  0  0  0  0  0  0
    6.5220    1.8827    9.0014 Cr  0  0  0  0  0  0  0  0  0  0  0  0
    8.1525    0.9414   10.7364 Cr  0  0  0  0  0  0  0  0  0  0  0  0
    4.8915    4.7069   12.5408 Br  0  0  0  0  0  0  0  0  0  0  0  0
    6.5220    3.7655    7.1969 Br  0  0  0  0  0  0  0  0  0  0  0  0
    4.8915    2.8241    9.8689 C   0  0  2  0  0  0  0  0  0  0  0  0
    4.8915    4.7069    9.0014 Cr  0  0  0  0  0  0  0  0  0  0  0  0
    6.5220    3.7655   10.7364 Cr  0  0  0  0  0  0  0  0  0  0  0  0
    3.2610    7.5310   12.5408 Br  0  0  0  0  0  0  0  0  0  0  0  0
    4.8915    6.5896    7.1969 Br  0  0  0  0  0  0  0  0  0  0  0  0
    3.2610    5.6482    9.8689 C   0  0  2  0  0  0  0  0  0  0  0  0
    3.2610    7.5310    9.0014 Cr  0  0  0  0  0  0  0  0  0  0  0  0
    4.8915    6.5896   10.7364 Cr  0  0  0  0  0  0  0  0  0  0  0  0
    1.6305   10.3551   12.5408 Br  0  0  0  0  0  0  0  0  0  0  0  0
    3.2610    9.4137    7.1969 Br  0  0  0  0  0  0  0  0  0  0  0  0
    1.6305    8.4723    9.8689 C   0  0  2  0  0  0  0  0  0  0  0  0
    1.6305   10.3551    9.0014 Cr  0  0  0  0  0  0  0  0  0  0  0  0
    3.2610    9.4137   10.7364 Cr  0  0  0  0  0  0  0  0  0  0  0  0
    9.7830    1.8827   12.5408 Br  0  0  0  0  0  0  0  0  0  0  0  0
   11.4135    0.9414    7.1969 Br  0  0  0  0  0  0  0  0  0  0  0  0
    9.7830    0.0000    9.8689 C   0  0  1  0  0  0  0  0  0  0  0  0
    9.7830    1.8827    9.0014 Cr  0  0  0  0  0  0  0  0  0  0  0  0
   11.4135    0.9414   10.7364 Cr  0  0  0  0  0  0  0  0  0  0  0  0
    8.1525    4.7069   12.5408 Br  0  0  0  0  0  0  0  0  0  0  0  0
    9.7830    3.7655    7.1969 Br  0  0  0  0  0  0  0  0  0  0  0  0
    8.1525    2.8241    9.8689 C   0  0  2  0  0  0  0  0  0  0  0  0
    8.1525    4.7069    9.0014 Cr  0  0  0  0  0  0  0  0  0  0  0  0
    9.7830    3.7655   10.7364 Cr  0  0  0  0  0  0  0  0  0  0  0  0
    6.5220    7.5310   12.5408 Br  0  0  0  0  0  0  0  0  0  0  0  0
    8.1525    6.5896    7.1969 Br  0  0  0  0  0  0  0  0  0  0  0  0
    6.5220    5.6482    9.8689 C   0  0  2  0  0  0  0  0  0  0  0  0
    6.5220    7.5310    9.0014 Cr  0  0  0  0  0  0  0  0  0  0  0  0
    8.1525    6.5896   10.7364 Cr  0  0  1  0  0  0  0  0  0  0  0  0
    4.8915   10.3551   12.5408 Br  0  0  0  0  0  0  0  0  0  0  0  0
    6.5220    9.4137    7.1969 Br  0  0  0  0  0  0  0  0  0  0  0  0
    4.8915    8.4723    9.8689 C   0  0  2  0  0  0  0  0  0  0  0  0
    4.8915   10.3551    9.0014 Cr  0  0  0  0  0  0  0  0  0  0  0  0
    6.5220    9.4137   10.7364 Cr  0  0  0  0  0  0  0  0  0  0  0  0
  3  5  1  0  0  0  0
  4  3  1  1  0  0  0
  4  8  1  0  0  0  0
  4  5  1  0  0  0  0
  4 10  1  0  0  0  0
  5 21  1  0  0  0  0
  7 29  1  0  0  0  0
  8 10  1  1  0  0  0
  9  8  1  0  0  0  0
  9 13  1  0  0  0  0
  9 10  1  1  0  0  0
  9 15  1  0  0  0  0
 12 34  1  0  0  0  0
 13 14  1  6  0  0  0
 13 15  1  0  0  0  0
 14 18  1  0  0  0  0
 14 15  1  0  0  0  0
 14 20  1  0  0  0  0
 17 14  1  0  0  0  0
 18 19  1  6  0  0  0
 18 20  1  0  0  0  0
 19 20  1  0  0  0  0
 20 11  1  0  0  0  0
 23 24  1  6  0  0  0
 23  5  1  0  0  0  0
 23 25  1  0  0  0  0
 24  5  1  0  0  0  0
 24 30  1  0  0  0  0
 24 25  1  0  0  0  0
 25 41  1  0  0  0  0
 27 49  1  0  0  0  0
 28 24  1  6  0  0  0
 28  5  1  0  0  0  0
 28 10  1  0  0  0  0
 28 30  1  0  0  0  0
 29 10  1  0  0  0  0
 29 35  1  0  0  0  0
 29 30  1  0  0  0  0
 32 54  1  0  0  0  0
 33 29  1  6  0  0  0
 33 10  1  0  0  0  0
 33 35  1  0  0  0  0
 33 15  1  0  0  0  0
 34 40  1  0  0  0  0
 34 35  1  0  0  0  0
 34 15  1  0  0  0  0
 37 59  1  0  0  0  0
 38 34  1  6  0  0  0
 38 40  1  0  0  0  0
 38 15  1  0  0  0  0
 38 20  1  0  0  0  0
 39 40  1  0  0  0  0
 39 20  1  0  0  0  0
 40 31  1  0  0  0  0
 42 64  1  0  0  0  0
 43 44  1  6  0  0  0
 43 45  1  0  0  0  0
 43 25  1  0  0  0  0
 44 50  1  0  0  0  0
 44 45  1  0  0  0  0
 44 25  1  0  0  0  0
 45 61  1  0  0  0  0
 47 69  1  0  0  0  0
 48 44  1  6  0  0  0
 48 50  1  0  0  0  0
 48 30  1  0  0  0  0
 48 25  1  0  0  0  0
 49 55  1  0  0  0  0
 49 50  1  0  0  0  0
 49 30  1  0  0  0  0
 52 74  1  0  0  0  0
 53 49  1  6  0  0  0
 53 55  1  0  0  0  0
 53 35  1  0  0  0  0
 53 30  1  0  0  0  0
 54 60  1  0  0  0  0
 54 55  1  0  0  0  0
 54 35  1  0  0  0  0
 57 79  1  0  0  0  0
 58 54  1  6  0  0  0
 58 60  1  0  0  0  0
 58 40  1  0  0  0  0
 58 35  1  0  0  0  0
 59 60  1  0  0  0  0
 59 40  1  0  0  0  0
 60 51  1  0  0  0  0
 63 64  1  6  0  0  0
 63 65  1  0  0  0  0
 63 45  1  0  0  0  0
 64 65  1  0  0  0  0
 64 70  1  0  0  0  0
 64 45  1  0  0  0  0
 68 64  1  6  0  0  0
 68 70  1  0  0  0  0
 68 50  1  0  0  0  0
 68 45  1  0  0  0  0
 69 75  1  0  0  0  0
 69 70  1  0  0  0  0
 69 50  1  0  0  0  0
 72 69  1  0  0  0  0
 73 69  1  6  0  0  0
 73 75  1  0  0  0  0
 73 55  1  0  0  0  0
 73 50  1  0  0  0  0
 74 75  1  0  0  0  0
 74 55  1  0  0  0  0
 74 80  1  0  0  0  0
 75 66  1  1  0  0  0
 77 74  1  0  0  0  0
 78 74  1  6  0  0  0
 78 60  1  0  0  0  0
 78 55  1  0  0  0  0
 78 80  1  0  0  0  0
 79 60  1  0  0  0  0
 79 80  1  0  0  0  0
 80 76  1  0  0  0  0
 80 71  1  0  0  0  0
M  RAD  8   1   2   2   2   3   3   6   2   8   2  13   2  16   2  18   2
M  RAD  8  22   2  23   2  26   2  36   2  43   2  46   2  56   2  62   2
M  RAD  2  63   2  67   2
M  END
