Lattice="13.134483113764558 0.0 0.0 -6.567241556882279 11.374796042066171 0.0 0.0 -2e-16 32.32828290854611" Properties=species:S:1:pos:R:3 pbc="T T T"
 OpenBabel11052010413D

 80114  0  0  1  0  0  0  0  0999 V2000
   -0.0000    1.8958   12.4522 Br  0  0  0  0  0  0  0  0  0  0  0  0
    1.6418    0.9479    7.0431 Br  0  0  0  0  0  0  0  0  0  0  0  0
    0.0000   -0.0000    9.6996 C   0  0  0  0  0  0  0  0  0  0  0  0
   -0.0000    1.8958    8.8337 Cr  0  0  0  0  0  0  0  0  0  0  0  0
    1.6418    0.9479   10.6385 V   0  0  0  0  0  0  0  0  0  0  0  0
   -1.6418    4.7395   12.4522 Br  0  0  0  0  0  0  0  0  0  0  0  0
    0.0000    3.7916    7.0431 Br  0  0  0  0  0  0  0  0  0  0  0  0
   -1.6418    2.8437    9.6996 C   0  0  2  0  0  0  0  0  0  0  0  0
   -1.6418    4.7395    8.8337 Cr  0  0  0  0  0  0  0  0  0  0  0  0
    0.0000    3.7916   10.6385 V   0  0  0  0  0  0  0  0  0  0  0  0
   -3.2836    7.5832   12.4522 Br  0  0  0  0  0  0  0  0  0  0  0  0
   -1.6418    6.6353    7.0431 Br  0  0  0  0  0  0  0  0  0  0  0  0
   -3.2836    5.6874    9.6996 C   0  0  2  0  0  0  0  0  0  0  0  0
   -3.2836    7.5832    8.8337 Cr  0  0  0  0  0  0  0  0  0  0  0  0
   -1.6418    6.6353   10.6385 V   0  0  0  0  0  0  0  0  0  0  0  0
   -4.9254   10.4269   12.4522 Br  0  0  0  0  0  0  0  0  0  0  0  0
   -3.2836    9.4790    7.0431 Br  0  0  0  0  0  0  0  0  0  0  0  0
   -4.9254    8.5311    9.6996 C   0  0  2  0  0  0  0  0  0  0  0  0
   -4.9254   10.4269    8.8337 Cr  0  0  0  0  0  0  0  0  0  0  0  0
   -3.2836    9.4790   10.6385 V   0  0  0  0  0  0  0  0  0  0  0  0
    3.2836    1.8958   12.4522 Br  0  0  0  0  0  0  0  0  0  0  0  0
    4.9254    0.9479    7.0431 Br  0  0  0  0  0  0  0  0  0  0  0  0
    3.2836   -0.0000    9.6996 C   0  0  1  0  0  0  0  0  0  0  0  0
    3.2836    1.8958    8.8337 Cr  0  0  0  0  0  0  0  0  0  0  0  0
    4.9254    0.9479   10.6385 V   0  0  1  0  0  0  0  0  0  0  0  0
    1.6418    4.7395   12.4522 Br  0  0  0  0  0  0  0  0  0  0  0  0
    3.2836    3.7916    7.0431 Br  0  0  0  0  0  0  0  0  0  0  0  0
    1.6418    2.8437    9.6996 C   0  0  1  0  0  0  0  0  0  0  0  0
    1.6418    4.7395    8.8337 Cr  0  0  0  0  0  0  0  0  0  0  0  0
    3.2836    3.7916   10.6385 V   0  0  2  0  0  0  0  0  0  0  0  0
   -0.0000    7.5832   12.4522 Br  0  0  0  0  0  0  0  0  0  0  0  0
    1.6418    6.6353    7.0431 Br  0  0  0  0  0  0  0  0  0  0  0  0
    0.0000    5.6874    9.6996 C   0  0  1  0  0  0  0  0  0  0  0  0
   -0.0000    7.5832    8.8337 Cr  0  0  0  0  0  0  0  0  0  0  0  0
    1.6418    6.6353   10.6385 V   0  0  2  0  0  0  0  0  0  0  0  0
   -1.6418   10.4269   12.4522 Br  0  0  0  0  0  0  0  0  0  0  0  0
    0.0000    9.4790    7.0431 Br  0  0  0  0  0  0  0  0  0  0  0  0
   -1.6418    8.5311    9.6996 C   0  0  1  0  0  0  0  0  0  0  0  0
   -1.6418   10.4269    8.8337 Cr  0  0  1  0  0  0  0  0  0  0  0  0
    0.0000    9.4790   10.6385 V   0  0  0  0  0  0  0  0  0  0  0  0
    6.5672    1.8958   12.4522 Br  0  0  0  0  0  0  0  0  0  0  0  0
    8.2091    0.9479    7.0431 Br  0  0  0  0  0  0  0  0  0  0  0  0
    6.5672   -0.0000    9.6996 C   0  0  1  0  0  0  0  0  0  0  0  0
    6.5672    1.8958    8.8337 Cr  0  0  0  0  0  0  0  0  0  0  0  0
    8.2091    0.9479   10.6385 V   0  0  1  0  0  0  0  0  0  0  0  0
    4.9254    4.7395   12.4522 Br  0  0  0  0  0  0  0  0  0  0  0  0
    6.5672    3.7916    7.0431 Br  0  0  0  0  0  0  0  0  0  0  0  0
    4.9254    2.8437    9.6996 C   0  0  1  0  0  0  0  0  0  0  0  0
    4.9254    4.7395    8.8337 Cr  0  0  0  0  0  0  0  0  0  0  0  0
    6.5672    3.7916   10.6385 V   0  0  0  0  0  0  0  0  0  0  0  0
    3.2836    7.5832   12.4522 Br  0  0  0  0  0  0  0  0  0  0  0  0
    4.9254    6.6353    7.0431 Br  0  0  0  0  0  0  0  0  0  0  0  0
    3.2836    5.6874    9.6996 C   0  0  1  0  0  0  0  0  0  0  0  0
    3.2836    7.5832    8.8337 Cr  0  0  0  0  0  0  0  0  0  0  0  0
    4.9254    6.6353   10.6385 V   0  0  0  0  0  0  0  0  0  0  0  0
    1.6418   10.4269   12.4522 Br  0  0  0  0  0  0  0  0  0  0  0  0
    3.2836    9.4790    7.0431 Br  0  0  0  0  0  0  0  0  0  0  0  0
    1.6418    8.5311    9.6996 C   0  0  1  0  0  0  0  0  0  0  0  0
    1.6418   10.4269    8.8337 Cr  0  0  0  0  0  0  0  0  0  0  0  0
    3.2836    9.4790   10.6385 V   0  0  0  0  0  0  0  0  0  0  0  0
    9.8509    1.8958   12.4522 Br  0  0  0  0  0  0  0  0  0  0  0  0
   11.4927    0.9479    7.0431 Br  0  0  0  0  0  0  0  0  0  0  0  0
    9.8509   -0.0000    9.6996 C   0  0  1  0  0  0  0  0  0  0  0  0
    9.8509    1.8958    8.8337 Cr  0  0  0  0  0  0  0  0  0  0  0  0
   11.4927    0.9479   10.6385 V   0  0  0  0  0  0  0  0  0  0  0  0
    8.2091    4.7395   12.4522 Br  0  0  0  0  0  0  0  0  0  0  0  0
    9.8509    3.7916    7.0431 Br  0  0  0  0  0  0  0  0  0  0  0  0
    8.2091    2.8437    9.6996 C   0  0  1  0  0  0  0  0  0  0  0  0
    8.2091    4.7395    8.8337 Cr  0  0  0  0  0  0  0  0  0  0  0  0
    9.8509    3.7916   10.6385 V   0  0  0  0  0  0  0  0  0  0  0  0
    6.5672    7.5832   12.4522 Br  0  0  0  0  0  0  0  0  0  0  0  0
    8.2091    6.6353    7.0431 Br  0  0  0  0  0  0  0  0  0  0  0  0
    6.5672    5.6874    9.6996 C   0  0  1  0  0  0  0  0  0  0  0  0
    6.5672    7.5832    8.8337 Cr  0  0  0  0  0  0  0  0  0  0  0  0
    8.2091    6.6353   10.6385 V   0  0  0  0  0  0  0  0  0  0  0  0
    4.9254   10.4269   12.4522 Br  0  0  0  0  0  0  0  0  0  0  0  0
    6.5672    9.4790    7.0431 Br  0  0  0  0  0  0  0  0  0  0  0  0
    4.9254    8.5311    9.6996 C   0  0  1  0  0  0  0  0  0  0  0  0
    4.9254   10.4269    8.8337 Cr  0  0  0  0  0  0  0  0  0  0  0  0
    6.5672    9.4790   10.6385 V   0  0  0  0  0  0  0  0  0  0  0  0
  2 24  1  0  0  0  0
  3  5  1  0  0  0  0
  4  3  1  0  0  0  0
  4 28  1  0  0  0  0
  4  5  1  0  0  0  0
  4 10  1  0  0  0  0
  7  4  1  0  0  0  0
  8  4  1  6  0  0  0
  8 10  1  0  0  0  0
  9  8  1  0  0  0  0
  9 33  1  0  0  0  0
  9 10  1  0  0  0  0
  9 15  1  0  0  0  0
 12 34  1  0  0  0  0
 13  9  1  6  0  0  0
 13 15  1  0  0  0  0
 14 13  1  0  0  0  0
 14 38  1  0  0  0  0
 14 18  1  0  0  0  0
 14 15  1  0  0  0  0
 14 20  1  0  0  0  0
 18 19  1  6  0  0  0
 18 20  1  0  0  0  0
 19 20  1  0  0  0  0
 20 36  1  0  0  0  0
 22 44  1  0  0  0  0
 23 24  1  6  0  0  0
 23  5  1  0  0  0  0
 23 25  1  0  0  0  0
 24 48  1  0  0  0  0
 24 28  1  0  0  0  0
 24 30  1  0  0  0  0
 25 41  1  1  0  0  0
 27 24  1  0  0  0  0
 28 29  1  6  0  0  0
 28 10  1  0  0  0  0
 29 53  1  0  0  0  0
 29 33  1  0  0  0  0
 29 10  1  0  0  0  0
 29 35  1  0  0  0  0
 30 21  1  1  0  0  0
 32 29  1  0  0  0  0
 33 34  1  6  0  0  0
 33 15  1  0  0  0  0
 34 58  1  0  0  0  0
 34 15  1  0  0  0  0
 35 26  1  1  0  0  0
 37 34  1  0  0  0  0
 38 34  1  1  0  0  0
 38 20  1  0  0  0  0
 39 17  1  6  0  0  0
 39 38  1  0  0  0  0
 39 40  1  0  0  0  0
 39 20  1  0  0  0  0
 40 31  1  0  0  0  0
 40 56  1  0  0  0  0
 42 64  1  0  0  0  0
 43 44  1  6  0  0  0
 43 45  1  0  0  0  0
 43 25  1  0  0  0  0
 44 25  1  0  0  0  0
 45 61  1  1  0  0  0
 47 69  1  0  0  0  0
 48 44  1  1  0  0  0
 48 30  1  0  0  0  0
 49 53  1  0  0  0  0
 49 48  1  0  0  0  0
 49 55  1  0  0  0  0
 49 30  1  0  0  0  0
 50 66  1  0  0  0  0
 52 74  1  0  0  0  0
 53 54  1  6  0  0  0
 53 35  1  0  0  0  0
 54 60  1  0  0  0  0
 54 35  1  0  0  0  0
 55 71  1  0  0  0  0
 55 46  1  0  0  0  0
 57 54  1  0  0  0  0
 58 54  1  1  0  0  0
 58 40  1  0  0  0  0
 59 58  1  0  0  0  0
 59 60  1  0  0  0  0
 59 40  1  0  0  0  0
 60 76  1  0  0  0  0
 60 51  1  0  0  0  0
 62 64  1  0  0  0  0
 63 64  1  6  0  0  0
 63 65  1  0  0  0  0
 63 45  1  0  0  0  0
 64 68  1  0  0  0  0
 64 45  1  0  0  0  0
 65 70  1  0  0  0  0
 67 64  1  0  0  0  0
 68 44  1  6  0  0  0
 68 50  1  0  0  0  0
 69 68  1  0  0  0  0
 69 73  1  0  0  0  0
 69 75  1  0  0  0  0
 69 50  1  0  0  0  0
 72 69  1  0  0  0  0
 73 49  1  6  0  0  0
 73 55  1  0  0  0  0
 74 78  1  0  0  0  0
 74 73  1  0  0  0  0
 74 55  1  0  0  0  0
 74 80  1  0  0  0  0
 75 70  1  0  0  0  0
 75 80  1  0  0  0  0
 77 74  1  0  0  0  0
 78 54  1  6  0  0  0
 78 60  1  0  0  0  0
 79 78  1  0  0  0  0
 79 60  1  0  0  0  0
 79 80  1  0  0  0  0
M  RAD  8   1   2   3   3   6   2   8   2  11   2  13   2  16   2  18   2
M  RAD  3  23   2  43   2  63   2
M  END
