Lattice="3.7339999676 0.0 0.0 -1.8669999838 3.2337388297 0.0 0.0 0.0 25.0" Properties=species:S:1:pos:R:3:Z:I:1 pbc="T T T"
 OpenBabel05071815023D

  5  3  0  0  0  0  0  0  0  0999 V2000
    0.0000    0.0000    7.5270 C   0  0  0  0  0  1  0  0  0  0  0  0
    1.8670    1.0779    9.2306 Cr  0  0  0  0  0  0  0  0  0  0  0  0
   -0.0000    2.1558    9.9812 F   0  0  0  0  0  0  0  0  0  0  0  0
    1.8670    1.0779    5.0728 F   0  0  0  0  0  0  0  0  0  0  0  0
   -0.0000    2.1558    5.8234 W   0  0  0  0  0  0  0  0  0  0  0  0
  2  3  1  0  0  0  0
  4  5  1  0  0  0  0
  5  1  1  0  0  0  0
M  END
